rawData/IEEE_9500/dss_scripts/PVSystems_primary.dss
! PV systems for IEEE_9500 primary (reduced) feeder.
! 660 single-phase PVsystems on the top 50% highest-load buses.
! Each pmpp = 45% of the node load.
! Feeder peak load: 13668.99 kW   Total installed PV: 4239.01 kW
! Generated by add_pv_battery_9500.py

New PVsystem.pv_L2879092_c        bus1=L2879092.3 Phases=1 kV=7.2 kVA=27.0765 pmpp=27.0765 %Cutin=0.1 %Cutout=0.1
New PVsystem.pv_L3141411_c        bus1=L3141411.3 Phases=1 kV=7.2 kVA=13.7340 pmpp=13.7340 %Cutin=0.1 %Cutout=0.1
New PVsystem.pv_L3172805_a        bus1=L3172805.1 Phases=1 kV=7.2 kVA=5.3415 pmpp=5.3415 %Cutin=0.1 %Cutout=0.1
New PVsystem.pv_L3216350_a        bus1=L3216350.1 Phases=1 kV=7.2 kVA=8.3027 pmpp=8.3027 %Cutin=0.1 %Cutout=0.1
New PVsystem.pv_L2841631_c        bus1=L2841631.3 Phases=1 kV=7.2 kVA=5.9265 pmpp=5.9265 %Cutin=0.1 %Cutout=0.1
New PVsystem.pv_L3141402_c        bus1=L3141402.3 Phases=1 kV=7.2 kVA=4.5765 pmpp=4.5765 %Cutin=0.1 %Cutout=0.1
New PVsystem.pv_L3048221_a        bus1=L3048221.1 Phases=1 kV=7.2 kVA=5.3415 pmpp=5.3415 %Cutin=0.1 %Cutout=0.1
New PVsystem.pv_L3047058_a        bus1=L3047058.1 Phases=1 kV=7.2 kVA=5.9850 pmpp=5.9850 %Cutin=0.1 %Cutout=0.1
New PVsystem.pv_L3065696_a        bus1=L3065696.1 Phases=1 kV=7.2 kVA=5.3415 pmpp=5.3415 %Cutin=0.1 %Cutout=0.1
New PVsystem.pv_L3178982_a        bus1=L3178982.1 Phases=1 kV=7.2 kVA=5.3415 pmpp=5.3415 %Cutin=0.1 %Cutout=0.1
New PVsystem.pv_L2859391_b        bus1=L2859391.2 Phases=1 kV=7.2 kVA=4.3785 pmpp=4.3785 %Cutin=0.1 %Cutout=0.1
New PVsystem.pv_L2673323_c        bus1=L2673323.3 Phases=1 kV=7.2 kVA=5.9265 pmpp=5.9265 %Cutin=0.1 %Cutout=0.1
New PVsystem.pv_L2710525_c        bus1=L2710525.3 Phases=1 kV=7.2 kVA=4.5765 pmpp=4.5765 %Cutin=0.1 %Cutout=0.1
New PVsystem.pv_L2746587_c        bus1=L2746587.3 Phases=1 kV=7.2 kVA=4.5765 pmpp=4.5765 %Cutin=0.1 %Cutout=0.1
New PVsystem.pv_L2991933_c        bus1=L2991933.3 Phases=1 kV=7.2 kVA=9.1530 pmpp=9.1530 %Cutin=0.1 %Cutout=0.1
New PVsystem.pv_L3122837_c        bus1=L3122837.3 Phases=1 kV=7.2 kVA=6.8670 pmpp=6.8670 %Cutin=0.1 %Cutout=0.1
New PVsystem.pv_L3048222_c        bus1=L3048222.3 Phases=1 kV=7.2 kVA=6.8670 pmpp=6.8670 %Cutin=0.1 %Cutout=0.1
New PVsystem.pv_L2710542_b        bus1=L2710542.2 Phases=1 kV=7.2 kVA=4.3785 pmpp=4.3785 %Cutin=0.1 %Cutout=0.1
New PVsystem.pv_L2729430_b        bus1=L2729430.2 Phases=1 kV=7.2 kVA=4.3785 pmpp=4.3785 %Cutin=0.1 %Cutout=0.1
New PVsystem.pv_L3254234_b        bus1=L3254234.2 Phases=1 kV=7.2 kVA=4.3785 pmpp=4.3785 %Cutin=0.1 %Cutout=0.1
New PVsystem.pv_L3104114_b        bus1=L3104114.2 Phases=1 kV=7.2 kVA=5.7285 pmpp=5.7285 %Cutin=0.1 %Cutout=0.1
New PVsystem.pv_L2954338_b        bus1=L2954338.2 Phases=1 kV=7.2 kVA=4.3785 pmpp=4.3785 %Cutin=0.1 %Cutout=0.1
New PVsystem.pv_L3254206_b        bus1=L3254206.2 Phases=1 kV=7.2 kVA=4.3785 pmpp=4.3785 %Cutin=0.1 %Cutout=0.1
New PVsystem.pv_L3160108_b        bus1=L3160108.2 Phases=1 kV=7.2 kVA=6.5655 pmpp=6.5655 %Cutin=0.1 %Cutout=0.1
New PVsystem.pv_L2729409_b        bus1=L2729409.2 Phases=1 kV=7.2 kVA=4.3785 pmpp=4.3785 %Cutin=0.1 %Cutout=0.1
New PVsystem.pv_L2991927_b        bus1=L2991927.2 Phases=1 kV=7.2 kVA=5.7285 pmpp=5.7285 %Cutin=0.1 %Cutout=0.1
New PVsystem.pv_L3251806_b        bus1=L3251806.2 Phases=1 kV=7.2 kVA=5.9768 pmpp=5.9768 %Cutin=0.1 %Cutout=0.1
New PVsystem.pv_L2804245_b        bus1=L2804245.2 Phases=1 kV=7.2 kVA=4.3785 pmpp=4.3785 %Cutin=0.1 %Cutout=0.1
New PVsystem.pv_L2691938_b        bus1=L2691938.2 Phases=1 kV=7.2 kVA=4.3785 pmpp=4.3785 %Cutin=0.1 %Cutout=0.1
New PVsystem.pv_L3216338_b        bus1=L3216338.2 Phases=1 kV=7.2 kVA=5.7285 pmpp=5.7285 %Cutin=0.1 %Cutout=0.1
New PVsystem.pv_L2973146_b        bus1=L2973146.2 Phases=1 kV=7.2 kVA=4.3785 pmpp=4.3785 %Cutin=0.1 %Cutout=0.1
New PVsystem.pv_L2991901_b        bus1=L2991901.2 Phases=1 kV=7.2 kVA=4.3785 pmpp=4.3785 %Cutin=0.1 %Cutout=0.1
New PVsystem.pv_L2911069_b        bus1=L2911069.2 Phases=1 kV=7.2 kVA=5.9886 pmpp=5.9886 %Cutin=0.1 %Cutout=0.1
New PVsystem.pv_L2948732_b        bus1=L2948732.2 Phases=1 kV=7.2 kVA=7.0784 pmpp=7.0784 %Cutin=0.1 %Cutout=0.1
New PVsystem.pv_L3231269_b        bus1=L3231269.2 Phases=1 kV=7.2 kVA=5.9600 pmpp=5.9600 %Cutin=0.1 %Cutout=0.1
New PVsystem.pv_L2691939_b        bus1=L2691939.2 Phases=1 kV=7.2 kVA=4.3785 pmpp=4.3785 %Cutin=0.1 %Cutout=0.1
New PVsystem.pv_L2822858_b        bus1=L2822858.2 Phases=1 kV=7.2 kVA=4.3785 pmpp=4.3785 %Cutin=0.1 %Cutout=0.1
New PVsystem.pv_L3177881_c        bus1=L3177881.3 Phases=1 kV=7.2 kVA=4.5765 pmpp=4.5765 %Cutin=0.1 %Cutout=0.1
New PVsystem.pv_L3122818_c        bus1=L3122818.3 Phases=1 kV=7.2 kVA=4.5765 pmpp=4.5765 %Cutin=0.1 %Cutout=0.1
New PVsystem.pv_L3160102_b        bus1=L3160102.2 Phases=1 kV=7.2 kVA=4.3785 pmpp=4.3785 %Cutin=0.1 %Cutout=0.1
New PVsystem.pv_L3085398_b        bus1=L3085398.2 Phases=1 kV=7.2 kVA=4.3785 pmpp=4.3785 %Cutin=0.1 %Cutout=0.1
New PVsystem.pv_L3197634_b        bus1=L3197634.2 Phases=1 kV=7.2 kVA=6.5655 pmpp=6.5655 %Cutin=0.1 %Cutout=0.1
New PVsystem.pv_L2729408_b        bus1=L2729408.2 Phases=1 kV=7.2 kVA=4.9353 pmpp=4.9353 %Cutin=0.1 %Cutout=0.1
New PVsystem.pv_L2766720_a        bus1=L2766720.1 Phases=1 kV=7.2 kVA=5.3415 pmpp=5.3415 %Cutin=0.1 %Cutout=0.1
New PVsystem.pv_L3122816_b        bus1=L3122816.2 Phases=1 kV=7.2 kVA=4.3785 pmpp=4.3785 %Cutin=0.1 %Cutout=0.1
New PVsystem.pv_L2954347_b        bus1=L2954347.2 Phases=1 kV=7.2 kVA=4.3785 pmpp=4.3785 %Cutin=0.1 %Cutout=0.1
New PVsystem.pv_L2935556_b        bus1=L2935556.2 Phases=1 kV=7.2 kVA=5.7285 pmpp=5.7285 %Cutin=0.1 %Cutout=0.1
New PVsystem.pv_L2691944_a        bus1=L2691944.1 Phases=1 kV=7.2 kVA=5.3415 pmpp=5.3415 %Cutin=0.1 %Cutout=0.1
New PVsystem.pv_L3216361_b        bus1=L3216361.2 Phases=1 kV=7.2 kVA=4.3785 pmpp=4.3785 %Cutin=0.1 %Cutout=0.1
New PVsystem.pv_L2673313_b        bus1=L2673313.2 Phases=1 kV=7.2 kVA=4.3785 pmpp=4.3785 %Cutin=0.1 %Cutout=0.1
New PVsystem.pv_L2785522_b        bus1=L2785522.2 Phases=1 kV=7.2 kVA=5.7285 pmpp=5.7285 %Cutin=0.1 %Cutout=0.1
New PVsystem.pv_L3254213_b        bus1=L3254213.2 Phases=1 kV=7.2 kVA=4.3785 pmpp=4.3785 %Cutin=0.1 %Cutout=0.1
New PVsystem.pv_L2766744_b        bus1=L2766744.2 Phases=1 kV=7.2 kVA=4.3785 pmpp=4.3785 %Cutin=0.1 %Cutout=0.1
New PVsystem.pv_L2785543_b        bus1=L2785543.2 Phases=1 kV=7.2 kVA=5.7285 pmpp=5.7285 %Cutin=0.1 %Cutout=0.1
New PVsystem.pv_L2731712_b        bus1=L2731712.2 Phases=1 kV=7.2 kVA=4.3785 pmpp=4.3785 %Cutin=0.1 %Cutout=0.1
New PVsystem.pv_L2710515_c        bus1=L2710515.3 Phases=1 kV=7.2 kVA=6.8670 pmpp=6.8670 %Cutin=0.1 %Cutout=0.1
New PVsystem.pv_L2766746_c        bus1=L2766746.3 Phases=1 kV=7.2 kVA=4.5765 pmpp=4.5765 %Cutin=0.1 %Cutout=0.1
New PVsystem.pv_L3104118_c        bus1=L3104118.3 Phases=1 kV=7.2 kVA=6.8670 pmpp=6.8670 %Cutin=0.1 %Cutout=0.1
New PVsystem.pv_L2748126_c        bus1=L2748126.3 Phases=1 kV=7.2 kVA=4.5765 pmpp=4.5765 %Cutin=0.1 %Cutout=0.1
New PVsystem.pv_L3235267_c        bus1=L3235267.3 Phases=1 kV=7.2 kVA=4.5765 pmpp=4.5765 %Cutin=0.1 %Cutout=0.1
New PVsystem.pv_L2841645_c        bus1=L2841645.3 Phases=1 kV=7.2 kVA=4.5765 pmpp=4.5765 %Cutin=0.1 %Cutout=0.1
New PVsystem.pv_L3066829_c        bus1=L3066829.3 Phases=1 kV=7.2 kVA=4.5765 pmpp=4.5765 %Cutin=0.1 %Cutout=0.1
New PVsystem.pv_L3235268_c        bus1=L3235268.3 Phases=1 kV=7.2 kVA=4.5765 pmpp=4.5765 %Cutin=0.1 %Cutout=0.1
New PVsystem.pv_L3235241_c        bus1=L3235241.3 Phases=1 kV=7.2 kVA=4.5765 pmpp=4.5765 %Cutin=0.1 %Cutout=0.1
New PVsystem.pv_L2691941_c        bus1=L2691941.3 Phases=1 kV=7.2 kVA=5.9265 pmpp=5.9265 %Cutin=0.1 %Cutout=0.1
New PVsystem.pv_L2879089_c        bus1=L2879089.3 Phases=1 kV=7.2 kVA=8.2170 pmpp=8.2170 %Cutin=0.1 %Cutout=0.1
New PVsystem.pv_L2916607_c        bus1=L2916607.3 Phases=1 kV=7.2 kVA=4.5765 pmpp=4.5765 %Cutin=0.1 %Cutout=0.1
New PVsystem.pv_L2726983_a        bus1=L2726983.1 Phases=1 kV=7.2 kVA=5.9850 pmpp=5.9850 %Cutin=0.1 %Cutout=0.1
New PVsystem.pv_L3140238_a        bus1=L3140238.1 Phases=1 kV=7.2 kVA=5.4856 pmpp=5.4856 %Cutin=0.1 %Cutout=0.1
New PVsystem.pv_L2935557_a        bus1=L2935557.1 Phases=1 kV=7.2 kVA=5.9850 pmpp=5.9850 %Cutin=0.1 %Cutout=0.1
New PVsystem.pv_L2820528_c        bus1=L2820528.3 Phases=1 kV=7.2 kVA=4.5765 pmpp=4.5765 %Cutin=0.1 %Cutout=0.1
New PVsystem.pv_L2745799_c        bus1=L2745799.3 Phases=1 kV=7.2 kVA=4.5765 pmpp=4.5765 %Cutin=0.1 %Cutout=0.1
New PVsystem.pv_L2822871_b        bus1=L2822871.2 Phases=1 kV=7.2 kVA=4.3785 pmpp=4.3785 %Cutin=0.1 %Cutout=0.1
New PVsystem.pv_L2785546_c        bus1=L2785546.3 Phases=1 kV=7.2 kVA=5.3415 pmpp=5.3415 %Cutin=0.1 %Cutout=0.1
New PVsystem.pv_L3010585_c        bus1=L3010585.3 Phases=1 kV=7.2 kVA=5.9850 pmpp=5.9850 %Cutin=0.1 %Cutout=0.1
New PVsystem.pv_L2821010_c        bus1=L2821010.3 Phases=1 kV=7.2 kVA=5.9850 pmpp=5.9850 %Cutin=0.1 %Cutout=0.1
New PVsystem.pv_L3197646_b        bus1=L3197646.2 Phases=1 kV=7.2 kVA=4.3785 pmpp=4.3785 %Cutin=0.1 %Cutout=0.1
New PVsystem.pv_L2785529_c        bus1=L2785529.3 Phases=1 kV=7.2 kVA=4.5765 pmpp=4.5765 %Cutin=0.1 %Cutout=0.1
New PVsystem.pv_L2841639_a        bus1=L2841639.1 Phases=1 kV=7.2 kVA=5.3415 pmpp=5.3415 %Cutin=0.1 %Cutout=0.1
New PVsystem.pv_L3120376_a        bus1=L3120376.1 Phases=1 kV=7.2 kVA=5.3415 pmpp=5.3415 %Cutin=0.1 %Cutout=0.1
New PVsystem.pv_L3216337_a        bus1=L3216337.1 Phases=1 kV=7.2 kVA=5.5399 pmpp=5.5399 %Cutin=0.1 %Cutout=0.1
New PVsystem.pv_L3270814_a        bus1=L3270814.1 Phases=1 kV=7.2 kVA=5.3415 pmpp=5.3415 %Cutin=0.1 %Cutout=0.1
New PVsystem.pv_L2954357_a        bus1=L2954357.1 Phases=1 kV=7.2 kVA=5.9850 pmpp=5.9850 %Cutin=0.1 %Cutout=0.1
New PVsystem.pv_L3235254_c        bus1=L3235254.3 Phases=1 kV=7.2 kVA=4.5765 pmpp=4.5765 %Cutin=0.1 %Cutout=0.1
New PVsystem.pv_L3649297_a        bus1=L3649297.1 Phases=1 kV=7.2 kVA=5.9850 pmpp=5.9850 %Cutin=0.1 %Cutout=0.1
New PVsystem.pv_L3649298_a        bus1=L3649298.1 Phases=1 kV=7.2 kVA=5.9850 pmpp=5.9850 %Cutin=0.1 %Cutout=0.1
New PVsystem.pv_L3649300_a        bus1=L3649300.1 Phases=1 kV=7.2 kVA=5.9850 pmpp=5.9850 %Cutin=0.1 %Cutout=0.1
New PVsystem.pv_L3649301_a        bus1=L3649301.1 Phases=1 kV=7.2 kVA=5.9850 pmpp=5.9850 %Cutin=0.1 %Cutout=0.1
New PVsystem.pv_L3649302_a        bus1=L3649302.1 Phases=1 kV=7.2 kVA=7.3350 pmpp=7.3350 %Cutin=0.1 %Cutout=0.1
New PVsystem.pv_L3649304_a        bus1=L3649304.1 Phases=1 kV=7.2 kVA=5.9850 pmpp=5.9850 %Cutin=0.1 %Cutout=0.1
New PVsystem.pv_L3649306_a        bus1=L3649306.1 Phases=1 kV=7.2 kVA=5.9850 pmpp=5.9850 %Cutin=0.1 %Cutout=0.1
New PVsystem.pv_L3216345_b        bus1=L3216345.2 Phases=1 kV=7.2 kVA=6.5655 pmpp=6.5655 %Cutin=0.1 %Cutout=0.1
New PVsystem.pv_L3645809_c        bus1=L3645809.3 Phases=1 kV=7.2 kVA=9.1530 pmpp=9.1530 %Cutin=0.1 %Cutout=0.1
New PVsystem.pv_L3645810_c        bus1=L3645810.3 Phases=1 kV=7.2 kVA=13.7340 pmpp=13.7340 %Cutin=0.1 %Cutout=0.1
New PVsystem.pv_L3645811_c        bus1=L3645811.3 Phases=1 kV=7.2 kVA=13.7340 pmpp=13.7340 %Cutin=0.1 %Cutout=0.1
New PVsystem.pv_L3645812_c        bus1=L3645812.3 Phases=1 kV=7.2 kVA=6.8670 pmpp=6.8670 %Cutin=0.1 %Cutout=0.1
New PVsystem.pv_L2785521_c        bus1=L2785521.3 Phases=1 kV=7.2 kVA=6.8670 pmpp=6.8670 %Cutin=0.1 %Cutout=0.1
New PVsystem.pv_L3103822_c        bus1=L3103822.3 Phases=1 kV=7.2 kVA=6.8670 pmpp=6.8670 %Cutin=0.1 %Cutout=0.1
New PVsystem.pv_L3253995_c        bus1=L3253995.3 Phases=1 kV=7.2 kVA=16.2450 pmpp=16.2450 %Cutin=0.1 %Cutout=0.1
New PVsystem.pv_L2878848_c        bus1=L2878848.3 Phases=1 kV=7.2 kVA=6.8670 pmpp=6.8670 %Cutin=0.1 %Cutout=0.1
New PVsystem.pv_L2766499_c        bus1=L2766499.3 Phases=1 kV=7.2 kVA=9.1530 pmpp=9.1530 %Cutin=0.1 %Cutout=0.1
New PVsystem.pv_L2897554_c        bus1=L2897554.3 Phases=1 kV=7.2 kVA=9.1530 pmpp=9.1530 %Cutin=0.1 %Cutout=0.1
New PVsystem.pv_L2729207_c        bus1=L2729207.3 Phases=1 kV=7.2 kVA=9.1530 pmpp=9.1530 %Cutin=0.1 %Cutout=0.1
New PVsystem.pv_L2729206_c        bus1=L2729206.3 Phases=1 kV=7.2 kVA=6.8670 pmpp=6.8670 %Cutin=0.1 %Cutout=0.1
New PVsystem.pv_L3104123_c        bus1=L3104123.3 Phases=1 kV=7.2 kVA=20.7450 pmpp=20.7450 %Cutin=0.1 %Cutout=0.1
New PVsystem.pv_L2822866_b        bus1=L2822866.2 Phases=1 kV=7.2 kVA=4.3785 pmpp=4.3785 %Cutin=0.1 %Cutout=0.1
New PVsystem.pv_L3178972_c        bus1=L3178972.3 Phases=1 kV=7.2 kVA=9.1530 pmpp=9.1530 %Cutin=0.1 %Cutout=0.1
New PVsystem.pv_L2983432_a        bus1=L2983432.1 Phases=1 kV=7.2 kVA=5.3415 pmpp=5.3415 %Cutin=0.1 %Cutout=0.1
New PVsystem.pv_L2954345_c        bus1=L2954345.3 Phases=1 kV=7.2 kVA=20.7450 pmpp=20.7450 %Cutin=0.1 %Cutout=0.1
New PVsystem.pv_L2895449_c        bus1=L2895449.3 Phases=1 kV=7.2 kVA=4.5765 pmpp=4.5765 %Cutin=0.1 %Cutout=0.1
New PVsystem.pv_L2804255_b        bus1=L2804255.2 Phases=1 kV=7.2 kVA=4.3785 pmpp=4.3785 %Cutin=0.1 %Cutout=0.1
New PVsystem.pv_L3176656_a        bus1=L3176656.1 Phases=1 kV=7.2 kVA=5.3415 pmpp=5.3415 %Cutin=0.1 %Cutout=0.1
New PVsystem.pv_L2841621_c        bus1=L2841621.3 Phases=1 kV=7.2 kVA=4.5765 pmpp=4.5765 %Cutin=0.1 %Cutout=0.1
New PVsystem.pv_L3122814_c        bus1=L3122814.3 Phases=1 kV=7.2 kVA=29.7450 pmpp=29.7450 %Cutin=0.1 %Cutout=0.1
New PVsystem.pv_L3066812_a        bus1=L3066812.1 Phases=1 kV=7.2 kVA=5.3415 pmpp=5.3415 %Cutin=0.1 %Cutout=0.1
New PVsystem.pv_L2879067_a        bus1=L2879067.1 Phases=1 kV=7.2 kVA=5.3415 pmpp=5.3415 %Cutin=0.1 %Cutout=0.1
New PVsystem.pv_L2879068_b        bus1=L2879068.2 Phases=1 kV=7.2 kVA=4.3785 pmpp=4.3785 %Cutin=0.1 %Cutout=0.1
New PVsystem.pv_L2973152_b        bus1=L2973152.2 Phases=1 kV=7.2 kVA=4.3785 pmpp=4.3785 %Cutin=0.1 %Cutout=0.1
New PVsystem.pv_L3178975_b        bus1=L3178975.2 Phases=1 kV=7.2 kVA=5.7285 pmpp=5.7285 %Cutin=0.1 %Cutout=0.1
New PVsystem.pv_L3066811_b        bus1=L3066811.2 Phases=1 kV=7.2 kVA=4.3785 pmpp=4.3785 %Cutin=0.1 %Cutout=0.1
New PVsystem.pv_L2860483_b        bus1=L2860483.2 Phases=1 kV=7.2 kVA=4.3785 pmpp=4.3785 %Cutin=0.1 %Cutout=0.1
New PVsystem.pv_L3141397_b        bus1=L3141397.2 Phases=1 kV=7.2 kVA=4.3785 pmpp=4.3785 %Cutin=0.1 %Cutout=0.1
New PVsystem.pv_L3085397_b        bus1=L3085397.2 Phases=1 kV=7.2 kVA=5.7285 pmpp=5.7285 %Cutin=0.1 %Cutout=0.1
New PVsystem.pv_L2935553_b        bus1=L2935553.2 Phases=1 kV=7.2 kVA=4.3785 pmpp=4.3785 %Cutin=0.1 %Cutout=0.1
New PVsystem.pv_L2785512_b        bus1=L2785512.2 Phases=1 kV=7.2 kVA=4.3785 pmpp=4.3785 %Cutin=0.1 %Cutout=0.1
New PVsystem.pv_L3122810_b        bus1=L3122810.2 Phases=1 kV=7.2 kVA=5.7285 pmpp=5.7285 %Cutin=0.1 %Cutout=0.1
New PVsystem.pv_L2822860_b        bus1=L2822860.2 Phases=1 kV=7.2 kVA=5.7285 pmpp=5.7285 %Cutin=0.1 %Cutout=0.1
New PVsystem.pv_L2860480_b        bus1=L2860480.2 Phases=1 kV=7.2 kVA=4.3785 pmpp=4.3785 %Cutin=0.1 %Cutout=0.1
New PVsystem.pv_L2710514_b        bus1=L2710514.2 Phases=1 kV=7.2 kVA=4.3785 pmpp=4.3785 %Cutin=0.1 %Cutout=0.1
New PVsystem.pv_L3048203_b        bus1=L3048203.2 Phases=1 kV=7.2 kVA=4.3785 pmpp=4.3785 %Cutin=0.1 %Cutout=0.1
New PVsystem.pv_L3160117_b        bus1=L3160117.2 Phases=1 kV=7.2 kVA=4.3785 pmpp=4.3785 %Cutin=0.1 %Cutout=0.1
New PVsystem.pv_L3215549_b        bus1=L3215549.2 Phases=1 kV=7.2 kVA=4.3785 pmpp=4.3785 %Cutin=0.1 %Cutout=0.1
New PVsystem.pv_L2989432_b        bus1=L2989432.2 Phases=1 kV=7.2 kVA=5.7285 pmpp=5.7285 %Cutin=0.1 %Cutout=0.1
New PVsystem.pv_L3066830_b        bus1=L3066830.2 Phases=1 kV=7.2 kVA=5.7285 pmpp=5.7285 %Cutin=0.1 %Cutout=0.1
New PVsystem.pv_L3197660_b        bus1=L3197660.2 Phases=1 kV=7.2 kVA=4.3785 pmpp=4.3785 %Cutin=0.1 %Cutout=0.1
New PVsystem.pv_L2710512_b        bus1=L2710512.2 Phases=1 kV=7.2 kVA=4.3785 pmpp=4.3785 %Cutin=0.1 %Cutout=0.1
New PVsystem.pv_L2954346_b        bus1=L2954346.2 Phases=1 kV=7.2 kVA=5.3490 pmpp=5.3490 %Cutin=0.1 %Cutout=0.1
New PVsystem.pv_L2748124_b        bus1=L2748124.2 Phases=1 kV=7.2 kVA=4.3785 pmpp=4.3785 %Cutin=0.1 %Cutout=0.1
New PVsystem.pv_L3159037_b        bus1=L3159037.2 Phases=1 kV=7.2 kVA=6.5655 pmpp=6.5655 %Cutin=0.1 %Cutout=0.1
New PVsystem.pv_L3234185_b        bus1=L3234185.2 Phases=1 kV=7.2 kVA=5.7285 pmpp=5.7285 %Cutin=0.1 %Cutout=0.1
New PVsystem.pv_L3065750_b        bus1=L3065750.2 Phases=1 kV=7.2 kVA=4.3785 pmpp=4.3785 %Cutin=0.1 %Cutout=0.1
New PVsystem.pv_L2690941_b        bus1=L2690941.2 Phases=1 kV=7.2 kVA=4.3785 pmpp=4.3785 %Cutin=0.1 %Cutout=0.1
New PVsystem.pv_L2710504_b        bus1=L2710504.2 Phases=1 kV=7.2 kVA=7.9155 pmpp=7.9155 %Cutin=0.1 %Cutout=0.1
New PVsystem.pv_L3216344_b        bus1=L3216344.2 Phases=1 kV=7.2 kVA=8.7525 pmpp=8.7525 %Cutin=0.1 %Cutout=0.1
New PVsystem.pv_L2860501_b        bus1=L2860501.2 Phases=1 kV=7.2 kVA=4.3785 pmpp=4.3785 %Cutin=0.1 %Cutout=0.1
New PVsystem.pv_L3066815_c        bus1=L3066815.3 Phases=1 kV=7.2 kVA=4.5765 pmpp=4.5765 %Cutin=0.1 %Cutout=0.1
New PVsystem.pv_L2954353_a        bus1=L2954353.1 Phases=1 kV=7.2 kVA=5.3415 pmpp=5.3415 %Cutin=0.1 %Cutout=0.1
New PVsystem.pv_L2897777_c        bus1=L2897777.3 Phases=1 kV=7.2 kVA=4.5765 pmpp=4.5765 %Cutin=0.1 %Cutout=0.1
New PVsystem.pv_L2822869_a        bus1=L2822869.1 Phases=1 kV=7.2 kVA=5.3415 pmpp=5.3415 %Cutin=0.1 %Cutout=0.1
New PVsystem.pv_L2729410_c        bus1=L2729410.3 Phases=1 kV=7.2 kVA=22.5765 pmpp=22.5765 %Cutin=0.1 %Cutout=0.1
New PVsystem.pv_L3254217_c        bus1=L3254217.3 Phases=1 kV=7.2 kVA=5.9265 pmpp=5.9265 %Cutin=0.1 %Cutout=0.1
New PVsystem.pv_L2973161_a        bus1=L2973161.1 Phases=1 kV=7.2 kVA=5.9850 pmpp=5.9850 %Cutin=0.1 %Cutout=0.1
New PVsystem.pv_L3235258_c        bus1=L3235258.3 Phases=1 kV=7.2 kVA=2.7450 pmpp=2.7450 %Cutin=0.1 %Cutout=0.1
New PVsystem.pv_L3235258_b        bus1=L3235258.2 Phases=1 kV=7.2 kVA=7.9155 pmpp=7.9155 %Cutin=0.1 %Cutout=0.1
New PVsystem.pv_L3235258_a        bus1=L3235258.1 Phases=1 kV=7.2 kVA=3.7440 pmpp=3.7440 %Cutin=0.1 %Cutout=0.1
New PVsystem.pv_L2729414_c        bus1=L2729414.3 Phases=1 kV=7.2 kVA=4.5765 pmpp=4.5765 %Cutin=0.1 %Cutout=0.1
New PVsystem.pv_L2729414_b        bus1=L2729414.2 Phases=1 kV=7.2 kVA=4.3785 pmpp=4.3785 %Cutin=0.1 %Cutout=0.1
New PVsystem.pv_L2729414_a        bus1=L2729414.1 Phases=1 kV=7.2 kVA=3.9915 pmpp=3.9915 %Cutin=0.1 %Cutout=0.1
New PVsystem.pv_L3197639_a        bus1=L3197639.1 Phases=1 kV=7.2 kVA=5.3415 pmpp=5.3415 %Cutin=0.1 %Cutout=0.1
New PVsystem.pv_L3122820_a        bus1=L3122820.1 Phases=1 kV=7.2 kVA=5.3415 pmpp=5.3415 %Cutin=0.1 %Cutout=0.1
New PVsystem.pv_L2973157_a        bus1=L2973157.1 Phases=1 kV=7.2 kVA=5.3415 pmpp=5.3415 %Cutin=0.1 %Cutout=0.1
New PVsystem.pv_L3254216_a        bus1=L3254216.1 Phases=1 kV=7.2 kVA=5.3415 pmpp=5.3415 %Cutin=0.1 %Cutout=0.1
New PVsystem.pv_L3091052_a        bus1=L3091052.1 Phases=1 kV=7.2 kVA=5.9850 pmpp=5.9850 %Cutin=0.1 %Cutout=0.1
New PVsystem.pv_L2691949_b        bus1=L2691949.2 Phases=1 kV=7.2 kVA=4.3785 pmpp=4.3785 %Cutin=0.1 %Cutout=0.1
New PVsystem.pv_L3104127_b        bus1=L3104127.2 Phases=1 kV=7.2 kVA=4.3785 pmpp=4.3785 %Cutin=0.1 %Cutout=0.1
New PVsystem.pv_L3197636_b        bus1=L3197636.2 Phases=1 kV=7.2 kVA=5.7285 pmpp=5.7285 %Cutin=0.1 %Cutout=0.1
New PVsystem.pv_L3235252_b        bus1=L3235252.2 Phases=1 kV=7.2 kVA=5.7285 pmpp=5.7285 %Cutin=0.1 %Cutout=0.1
New PVsystem.pv_L2804258_b        bus1=L2804258.2 Phases=1 kV=7.2 kVA=5.7285 pmpp=5.7285 %Cutin=0.1 %Cutout=0.1
New PVsystem.pv_L2766722_b        bus1=L2766722.2 Phases=1 kV=7.2 kVA=4.3785 pmpp=4.3785 %Cutin=0.1 %Cutout=0.1
New PVsystem.pv_L2879071_b        bus1=L2879071.2 Phases=1 kV=7.2 kVA=4.3785 pmpp=4.3785 %Cutin=0.1 %Cutout=0.1
New PVsystem.pv_L3029504_b        bus1=L3029504.2 Phases=1 kV=7.2 kVA=4.3785 pmpp=4.3785 %Cutin=0.1 %Cutout=0.1
New PVsystem.pv_L3046854_b        bus1=L3046854.2 Phases=1 kV=7.2 kVA=6.5655 pmpp=6.5655 %Cutin=0.1 %Cutout=0.1
New PVsystem.pv_L2785547_b        bus1=L2785547.2 Phases=1 kV=7.2 kVA=4.3785 pmpp=4.3785 %Cutin=0.1 %Cutout=0.1
New PVsystem.pv_L3139086_b        bus1=L3139086.2 Phases=1 kV=7.2 kVA=4.3785 pmpp=4.3785 %Cutin=0.1 %Cutout=0.1
New PVsystem.pv_L2710546_b        bus1=L2710546.2 Phases=1 kV=7.2 kVA=8.0716 pmpp=8.0716 %Cutin=0.1 %Cutout=0.1
New PVsystem.pv_L3254214_b        bus1=L3254214.2 Phases=1 kV=7.2 kVA=4.3785 pmpp=4.3785 %Cutin=0.1 %Cutout=0.1
New PVsystem.pv_L3160104_b        bus1=L3160104.2 Phases=1 kV=7.2 kVA=4.3785 pmpp=4.3785 %Cutin=0.1 %Cutout=0.1
New PVsystem.pv_L2973180_b        bus1=L2973180.2 Phases=1 kV=7.2 kVA=5.7285 pmpp=5.7285 %Cutin=0.1 %Cutout=0.1
New PVsystem.pv_L2991915_b        bus1=L2991915.2 Phases=1 kV=7.2 kVA=4.3785 pmpp=4.3785 %Cutin=0.1 %Cutout=0.1
New PVsystem.pv_L2673320_b        bus1=L2673320.2 Phases=1 kV=7.2 kVA=4.3785 pmpp=4.3785 %Cutin=0.1 %Cutout=0.1
New PVsystem.pv_L3048209_b        bus1=L3048209.2 Phases=1 kV=7.2 kVA=5.7285 pmpp=5.7285 %Cutin=0.1 %Cutout=0.1
New PVsystem.pv_L2841634_b        bus1=L2841634.2 Phases=1 kV=7.2 kVA=6.5655 pmpp=6.5655 %Cutin=0.1 %Cutout=0.1
New PVsystem.pv_L2991916_b        bus1=L2991916.2 Phases=1 kV=7.2 kVA=5.7285 pmpp=5.7285 %Cutin=0.1 %Cutout=0.1
New PVsystem.pv_L2913406_b        bus1=L2913406.2 Phases=1 kV=7.2 kVA=6.5655 pmpp=6.5655 %Cutin=0.1 %Cutout=0.1
New PVsystem.pv_L2954349_b        bus1=L2954349.2 Phases=1 kV=7.2 kVA=4.3785 pmpp=4.3785 %Cutin=0.1 %Cutout=0.1
New PVsystem.pv_L3085391_b        bus1=L3085391.2 Phases=1 kV=7.2 kVA=8.7525 pmpp=8.7525 %Cutin=0.1 %Cutout=0.1
New PVsystem.pv_L2822877_b        bus1=L2822877.2 Phases=1 kV=7.2 kVA=6.0649 pmpp=6.0649 %Cutin=0.1 %Cutout=0.1
New PVsystem.pv_L2897801_a        bus1=L2897801.1 Phases=1 kV=7.2 kVA=5.9850 pmpp=5.9850 %Cutin=0.1 %Cutout=0.1
New PVsystem.pv_L2785514_a        bus1=L2785514.1 Phases=1 kV=7.2 kVA=5.3415 pmpp=5.3415 %Cutin=0.1 %Cutout=0.1
New PVsystem.pv_L2785513_a        bus1=L2785513.1 Phases=1 kV=7.2 kVA=5.3415 pmpp=5.3415 %Cutin=0.1 %Cutout=0.1
New PVsystem.pv_L2766741_a        bus1=L2766741.1 Phases=1 kV=7.2 kVA=5.3415 pmpp=5.3415 %Cutin=0.1 %Cutout=0.1
New PVsystem.pv_L2991905_a        bus1=L2991905.1 Phases=1 kV=7.2 kVA=5.9850 pmpp=5.9850 %Cutin=0.1 %Cutout=0.1
New PVsystem.pv_L3122812_b        bus1=L3122812.2 Phases=1 kV=7.2 kVA=6.5655 pmpp=6.5655 %Cutin=0.1 %Cutout=0.1
New PVsystem.pv_L2935549_b        bus1=L2935549.2 Phases=1 kV=7.2 kVA=6.5655 pmpp=6.5655 %Cutin=0.1 %Cutout=0.1
New PVsystem.pv_L3029518_b        bus1=L3029518.2 Phases=1 kV=7.2 kVA=4.3785 pmpp=4.3785 %Cutin=0.1 %Cutout=0.1
New PVsystem.pv_L2766749_b        bus1=L2766749.2 Phases=1 kV=7.2 kVA=4.3785 pmpp=4.3785 %Cutin=0.1 %Cutout=0.1
New PVsystem.pv_L3066810_c        bus1=L3066810.3 Phases=1 kV=7.2 kVA=4.5765 pmpp=4.5765 %Cutin=0.1 %Cutout=0.1
New PVsystem.pv_L2897769_c        bus1=L2897769.3 Phases=1 kV=7.2 kVA=5.9265 pmpp=5.9265 %Cutin=0.1 %Cutout=0.1
New PVsystem.pv_L3778577_c        bus1=L3778577.3 Phases=1 kV=7.2 kVA=4.5765 pmpp=4.5765 %Cutin=0.1 %Cutout=0.1
New PVsystem.pv_L3141395_c        bus1=L3141395.3 Phases=1 kV=7.2 kVA=4.5765 pmpp=4.5765 %Cutin=0.1 %Cutout=0.1
...
